63
Properties=species:S:1:pos:R:3:forces:R:3 energy=-69390.7434458429 stress="inf inf inf inf -inf inf inf inf -inf" free_energy=-69390.7434458429 pbc="F F F"
C       14.17189375       8.81264017       2.06386799       0.00731403      -0.00761530      -0.01589906
C       14.02638385       9.82453978       4.24425775      -0.01461386      -0.01319504      -0.00142728
O       13.39242261       5.70400312       2.00836701       0.00235321       0.00528047      -0.01748444
O       10.64010418       6.15224256       5.89620966      -0.01007061      -0.00086604       0.02837942
C        9.97991009      12.40797896       4.73814447       0.00260170       0.00347393       0.00222471
C        8.75897761      10.54512024       5.47771886       0.00380809       0.00825754      -0.00850945
C       10.00709433       8.51876870       6.07788127       0.00070282       0.00751691       0.01517642
O       10.69076903       4.80026696       3.19545516      -0.02594656       0.01816688      -0.01165528
C        9.95087161      11.32192228       5.70775631      -0.00230062      -0.00225168      -0.00257906
O       13.76404311       4.49564722       5.57538387      -0.00431558       0.03545445       0.03379142
C       12.59107980       8.80279340       6.15082400       0.00714886      -0.00488541      -0.00156606
C       14.42549591       8.51972146       3.54630551      -0.00067852      -0.01285826      -0.01301886
C       12.91643631       6.62044708       1.41685219       0.01716601       0.01945839      -0.00060461
C       10.10536742       5.70181759       2.68444006      -0.01778063       0.00958610      -0.02375518
H       12.84821704       4.76233832       5.68960219       0.01985389      -0.02999907       0.02473778
C        9.94883822       7.07073447       5.57731787      -0.00377518       0.00708245       0.01239406
H       14.19459318       5.27626069       5.21775126       0.00898484      -0.03102034       0.00653242
C       13.52472339       8.00666388       1.16371392       0.01812130       0.01713510      -0.01985157
C        8.03457308      11.14425292       4.36528236      -0.01098342       0.00431613      -0.01211122
C       11.13642451       9.25971540       6.30747748      -0.00053159      -0.02040201       0.02114190
C       12.38200996      11.08762226       5.49762129      -0.01825467      -0.00474931       0.00681814
C        9.03544485      11.59421201       0.42292892      -0.00582230      -0.00317598       0.00004672
C        9.10606781      10.39710669      -0.25518926      -0.00424273      -0.00691520      -0.00492878
C        8.19037828      11.71495448       1.60021233       0.00033031       0.00448148      -0.00277215
C        8.79438267      12.29423221       3.90615135      -0.00271413       0.00254268       0.00731988
C       11.45728781      11.91146110       0.19728662       0.00910372       0.00402862      -0.01311571
C       10.14178885      12.97533002       1.97305155       0.00708256       0.00374245       0.00517786
C       12.63566906      12.02399631       1.03927142       0.00537238       0.00303230      -0.00950749
C       12.54179171      12.59669766       2.28411986       0.00600914       0.00522540      -0.00187070
C        7.42963727       8.89188082       3.62041532       0.01448351       0.00045208       0.01096055
C       10.39024143       9.90953838      -0.72785819       0.00740288       0.00939053      -0.00749714
C       11.53061452      10.64295504      -0.50703894      -0.01074095       0.00986686      -0.01660488
C        7.46042233      10.63204160       2.03909280      -0.00667486      -0.00464384      -0.00238986
C        9.14105540       7.04478507       0.96330781      -0.00802127      -0.01260917      -0.00108319
C        8.33930658       9.25500586       0.21269602      -0.00448694      -0.00813305       0.00900357
C        7.52248092       8.29643862       2.31117887       0.01089077       0.00567499       0.01162990
C        8.94744266       6.53263886       3.25231130      -0.00731763      -0.00829314       0.00795906
C       13.24319192      11.99567378       3.41001527       0.00562997      -0.00840460      -0.00401307
C       10.41470393       8.46491727      -0.54684341       0.01491252       0.00335105       0.00963965
C       12.75351448       9.97063444      -0.09053193      -0.01038093       0.01558543       0.00249943
C       11.57227551       7.82483525      -0.14507971       0.00743392       0.00800970       0.01074657
C        7.54122411       9.36866225       1.32558985       0.01715556      -0.00599448      -0.01220208
C        8.81234809       9.17122324       5.62475728       0.00282878       0.01001941      -0.00084631
C        7.38719730      10.33872560       3.45997588       0.00034647       0.01209321       0.00401688
C       13.43189319      10.81812390       0.85695993      -0.00681725      -0.00175141       0.00106099
C        8.87453245      12.56835042       2.55849093      -0.00273949       0.00241508      -0.00943666
C       11.53256011       6.71530065       0.76345561       0.01777438      -0.01302544      -0.01301512
C       11.26292167      13.08900016       2.76571856      -0.00213481       0.01221564       0.00016856
C       12.40600434      12.11772633       4.57684969       0.00408266       0.00940453      -0.00292353
C       10.24206934      12.37223776       0.65404778      -0.00981256      -0.00046078      -0.00319221
C       11.17689692      12.79434231       4.18536379       0.00308887       0.00972063       0.00804827
C       13.99731050      10.84909305       3.24067735      -0.00649921      -0.01551114      -0.00662268
C        8.12713662       8.32061692       4.66891267       0.00014492      -0.00448988       0.00222084
C        8.29929754       7.16571623       2.13986171       0.00266542      -0.01221783       0.00751841
C       14.09046954      10.23940058       1.92583432      -0.02093758      -0.01626586       0.00396118
C       12.77671834       8.60069801       0.09318569      -0.00672852       0.01515009       0.00793425
C       10.33711472       6.32755100       1.30473960       0.00067893       0.01585285      -0.01048424
C        9.15617162       8.06297731       0.02922385       0.01241429      -0.00002536      -0.00906321
C        8.86841607       7.10533082       4.49299551      -0.00319653      -0.01891962       0.01817167
C       13.23482589       9.94302035       5.35526193      -0.00907431       0.00371098      -0.01720858
C       11.11523291      10.67564257       6.07751564      -0.00491731      -0.02477735      -0.00163948
O       14.78839076       7.49860612       4.04452951       0.00687594      -0.00021951      -0.00581772
O       13.09373096       7.79153148       6.53011444      -0.00225212      -0.00801822       0.00541637
