63
# CELL(abcABC):   -1.00000     1.00000     1.00000    90.00000    90.00000    90.00000  Step:           0  Bead:       0 positions{angstrom}  cell{angstrom}
       O  0.00000e+00  0.00000e+00  0.00000e+00
       H  3.02945e-01  6.54160e-01 -6.33230e-01
       H  7.41583e-01 -5.82492e-01  1.87971e-01
       O -2.78923e-02 -4.54895e+00  3.61543e-01
       C  3.40104e+00 -5.70641e-01 -7.82179e-01
       C  3.25231e+00  4.16938e-01  1.35642e+00
       O  2.66606e+00 -3.68262e+00 -8.81755e-01
       O -2.20141e-01 -3.26028e+00  3.15885e+00
       O  4.11695e+00 -1.85738e+00  1.16513e+00
       O  2.32666e+00 -1.61829e+00  3.61420e+00
       C -7.78167e-01  3.02000e+00  1.87135e+00
       C -1.99081e+00  1.17391e+00  2.60012e+00
       C -7.38048e-01 -8.75254e-01  3.19010e+00
       C -8.03587e-01  1.94493e+00  2.82762e+00
       C  1.82783e+00 -5.93478e-01  3.25962e+00
       C  3.69388e+00 -8.55674e-01  6.73848e-01
       C  2.17366e+00 -2.75755e+00 -1.45162e+00
       C -6.28729e-01 -3.65901e+00 -1.58440e-01
       C -8.32006e-01 -2.31833e+00  2.75392e+00
       C  2.75331e+00 -1.37945e+00 -1.68547e+00
       C -2.70855e+00  1.76733e+00  1.50402e+00
       C  3.98831e-01 -1.36563e-01  3.41079e+00
       C  1.61311e+00  1.68820e+00  2.60420e+00
       C -1.71753e+00  2.21405e+00 -2.43007e+00
       C -1.64376e+00  1.00415e+00 -3.11065e+00
       C -2.55314e+00  2.33426e+00 -1.26286e+00
       C -1.95190e+00  2.90337e+00  1.04433e+00
       C  7.03509e-01  2.52345e+00 -2.66515e+00
       C -6.20553e-01  3.58573e+00 -8.95825e-01
       C  1.87577e+00  2.63937e+00 -1.83498e+00
       C  1.78154e+00  3.21669e+00 -5.75221e-01
       C -3.31403e+00 -4.77564e-01  7.52484e-01
       C -3.72248e-01  5.22361e-01 -3.58587e+00
       C  7.79006e-01  1.26764e+00 -3.36805e+00
       C -3.28351e+00  1.23894e+00 -8.17985e-01
       C -1.59052e+00 -2.31537e+00 -1.87335e+00
       C -2.40309e+00 -1.30021e-01 -2.64969e+00
       C -3.22020e+00 -1.07223e+00 -5.48710e-01
       C -1.76452e+00 -2.83521e+00  3.95666e-01
       C  2.47431e+00  2.61750e+00  5.35389e-01
       C -3.42229e-01 -9.04691e-01 -3.40054e+00
       C  1.98636e+00  6.01992e-01 -2.95491e+00
       C  8.16410e-01 -1.54154e+00 -2.98198e+00
       C -3.20663e+00 -1.43674e-02 -1.52380e+00
       C -1.92405e+00 -2.03980e-01  2.73943e+00
       C -3.36163e+00  9.51033e-01  5.90896e-01
       C  2.66176e+00  1.44623e+00 -2.01205e+00
       C -1.87542e+00  3.18151e+00 -3.15023e-01
       C  7.98846e-01 -2.64805e+00 -2.06567e+00
       C  5.11470e-01  3.69989e+00 -9.67952e-02
       C  1.64217e+00  2.73839e+00  1.69779e+00
       C -5.23034e-01  2.98736e+00 -2.20306e+00
       C  4.30606e-01  3.41293e+00  1.31287e+00
       C  3.21583e+00  1.45723e+00  3.66203e-01
       C -2.60104e+00 -1.04852e+00  1.79525e+00
       C -2.42337e+00 -2.19543e+00 -7.08843e-01
       C  3.30840e+00  8.55605e-01 -9.35987e-01
       C  2.00694e+00 -7.70368e-01 -2.75148e+00
       C -3.99175e-01 -3.03316e+00 -1.51491e+00
       C -1.59290e+00 -1.30609e+00 -2.82490e+00
       C -1.85033e+00 -2.26247e+00  1.64090e+00
       C  2.45376e+00  5.31733e-01  2.46843e+00
       C  3.61399e-01  1.28115e+00  3.18053e+00
